* Deltares, D-Flow FM Version 1.2.146.141031M, May 18 2022, 08:48:09
* Source: https://svn.oss.deltares.nl/repos/delft3d/branches/research/Deltares/20210510_UNST-4987_4990_SO_3d_waves_morphology/
* File creation date: 11:01:33, 05-08-2022
** INFO   : Command: "F:\Research_Run\DFM_EXE\2sebrian_20220518\dflowfm\scripts\..\..\..\2sebrian_20220518\dflowfm\bin\dflowfm-cli.exe"  --nodisplay --autostartstop FlowFM.mdu
